&jules_drive
bl_height=1000.0,
data_end='see conf',
data_period='see conf',
data_start='see conf',
diff_frac_const=0.4,
file='see conf',
interp=7*'see conf',
l_daily_disagg=.false.,
l_perturb_driving=.false.,
nvars=7,
read_list=.false.,
t_for_con_rain=288.15,
t_for_snow=275.15,
tpl_name=7*'',
var=7*'see conf',
var_name=7*'',
z1_tq_in=1.2,
z1_tq_vary=.false.,
z1_uv_in=10.0,
/
