&jules_initial
total_snow=.true.,
const_val=0.9,0.0,0.0,50.0,275.0,278.0,10.0,0.0,1.0,2.0,0.5,3.0,
dump_file='see conf',
file='see conf',
nvars='see conf',
use_file='see conf',
var='see conf',
var_name='see conf',
/
