&jules_radiation
i_sea_alb_method=2,
l_albedo_obs=.false.,
l_cosz=.true.,
l_embedded_snow=.true.,
l_hapke_soil=.false.,
l_mask_snow_orog=.true.,
l_niso_direct=.true.,
l_partition_albsoil=.false.,
l_snow_albedo=.false.,
l_spec_alb_bs=.false.,
l_spec_albedo=.true.,
l_spec_sea_alb=.true.,
wght_alb=0.0,0.5,0.0,0.5,
/
