&jules_output
dump_period=1,
dump_period_unit='Y',
nprofiles=1,
output_dir='$OUTDIR',
run_id='$RUNID',
/
&jules_output_profile
l_land_frac=.false.,
nvars=12,
file_period=0,
output_main_run=.true.,
output_period=86400,
output_spinup=.false.,
output_type=12*'M',
profile_name='Daily_gb',
var='tstar_gb','t_soil','smcl','canopy_gb','cs_gb','npp_gb','gpp_gb','resp_s_gb','resp_p_gb','lai','canht','npp_n_gb',
var_name=12*'',
/
