&jules_prescribed
n_datasets=1,
/
&jules_prescribed_dataset
data_end='2022-01-01 00:00:00',
data_start='1959-01-01 00:00:00',
file='/home/users/doran/projects/carbon_prediction/data/co2_annmean_comb_chess_1959_2022_manualextraction.txt',
interp='i',
data_period=-2,
is_climatology=.false.,
nvars=1,
read_list=.false.,
tpl_name='',
var='co2_mmr',
var_name='co2_mmr',
/
