&jules_temp_fixes
ctile_orog_fix=2,
l_accurate_rho=.false.,
l_dtcanfix=.true.,
l_fix_alb_ice_thick=.true.,
l_fix_albsnow_ts=.true.,
l_fix_lake_ice_temperatures=.false.,
l_fix_moruses_roof_rad_coupling=.true.,
l_fix_osa_chloro=.false.,
l_fix_ustar_dust=.true.,
l_fix_wind_snow=.true.,
/
