&jules_time,
l_360='see conf',
l_leap='see conf',
l_local_solar_time=.false.,
main_run_end='$RUNENDDATE',
main_run_start='$RUNBEGDATE',
print_step=48,
timestep_len=drive_timestep,
/
&jules_spinup
max_spinup_cycles='see conf',
nvars=4,
spinup_end='$SPINENDDATE',
spinup_start='$SPINBEGDATE',
terminate_on_spinup_fail='see conf',
tolerance=4*'see conf',
use_percent=.false.,.false.,.false.,.false.,
var='smcl','t_soil','c_soil','c_veg',
/
