&jules_nvegparm
    albsnf_nvg_io = 0.18, 0.12, -1.0, 0.75
    catch_nvg_io = 0.5, 0.0, 0.0, 0.0
    ch_nvg_io = 280000.0, 21100000.0, 0.0, 0.0
    emis_nvg_io = 0.97, 0.985, 0.9, 0.99
    gs_nvg_io = 0.0, 0.0, 0.01, 1000000.0
    infil_nvg_io = 0.1, 0.0, 0.5, 0.0
    vf_nvg_io = 1.0, 1.0, 0.0, 0.0
    z0_nvg_io = 1.0, 0.0001, 0.001, 0.0005
    z0hm_classic_nvg_io = 0.1, 0.1, 0.1, 0.1
    z0hm_nvg_io = 1e-07, 2.5e-07, 0.02, 0.2
/
