&jules_time
    l_360 = .false.
    l_leap = .true.
    l_local_solar_time = .false.
    main_run_end = '2014-12-30 00:00:00'
    main_run_start = '2009-01-01 00:00:00'
    print_step = 48
    timestep_len = 1800
/

&jules_spinup
    max_spinup_cycles = 4
    nvars = 2
    spinup_end = '2014-12-30 00:00:00'
    spinup_start = '2009-01-01 00:00:00'
    terminate_on_spinup_fail = .false.
    tolerance = -1.0, -0.1
    use_percent = .false., .false.
    var = 'smcl', 't_soil'
/
